Circuit: * C:\Users\jjagielski\Documents\Band_Gap_Reference\starter_kit.asc

Warning: Multiple definitions of model "2scr375p" Type: BJT
Warning: Multiple definitions of model "bc857b" Type: BJT
Warning: Multiple definitions of model "bc847c" Type: BJT
Warning: Multiple definitions of model "bc847b" Type: BJT
WARNING: Node NC_03 is floating.
WARNING: Node NC_06 is floating.
WARNING: Node NC_09 is floating.
WARNING: Node NC_12 is floating.
WARNING: Node NC_15 is floating.
WARNING: Node NC_18 is floating.
WARNING: Node NC_21 is floating.

WARNING: Less than two connections to node nc_01.  This node is used by q3.
WARNING: Less than two connections to node nc_02.  This node is used by q3.
WARNING: Less than two connections to node nc_03.  This node is used by q3.
WARNING: Less than two connections to node nc_04.  This node is used by q4.
WARNING: Less than two connections to node nc_05.  This node is used by q4.
WARNING: Less than two connections to node nc_06.  This node is used by q4.
WARNING: Less than two connections to node nc_07.  This node is used by q5.
WARNING: Less than two connections to node nc_08.  This node is used by q5.
WARNING: Less than two connections to node nc_09.  This node is used by q5.
WARNING: Less than two connections to node nc_10.  This node is used by q6.
WARNING: Less than two connections to node nc_11.  This node is used by q6.
WARNING: Less than two connections to node nc_12.  This node is used by q6.
WARNING: Less than two connections to node nc_13.  This node is used by q7.
WARNING: Less than two connections to node nc_14.  This node is used by q7.
WARNING: Less than two connections to node nc_15.  This node is used by q7.
WARNING: Less than two connections to node nc_16.  This node is used by q8.
WARNING: Less than two connections to node nc_17.  This node is used by q8.
WARNING: Less than two connections to node nc_18.  This node is used by q8.
WARNING: Less than two connections to node nc_19.  This node is used by q9.
WARNING: Less than two connections to node nc_20.  This node is used by q9.
WARNING: Less than two connections to node nc_21.  This node is used by q9.

Date: Tue Apr 11 22:24:36 2023
Total elapsed time: 0.075 seconds.

tnom = 27
temp = 27
method = trap
totiter = 1631
traniter = 0
tranpoints = 0
accept = 0
rejected = 0
matrix size = 26
fillins = 0
solver = Normal
Avg thread counts: 1.6/0.0/2.2/1.6
Matrix Compiler1:      89 opcodes  0.4/[0.3]/0.3
Matrix Compiler2: off  [0.2]/0.4/0.2

